*Heading
** Simplified plate for frontend color mapping prototype.
** This is not a real grinding contact model.
*Preprint, echo=NO, model=NO, history=NO, contact=NO
*Node
1, -2.000000, -1.000000, 0.000000
2, -1.200000, -1.000000, 0.000000
3, -0.400000, -1.000000, 0.000000
4, 0.400000, -1.000000, 0.000000
5, 1.200000, -1.000000, 0.000000
6, 2.000000, -1.000000, 0.000000
7, -2.000000, -0.333333, 0.000000
8, -1.200000, -0.333333, 0.000000
9, -0.400000, -0.333333, 0.000000
10, 0.400000, -0.333333, 0.000000
11, 1.200000, -0.333333, 0.000000
12, 2.000000, -0.333333, 0.000000
13, -2.000000, 0.333333, 0.000000
14, -1.200000, 0.333333, 0.000000
15, -0.400000, 0.333333, 0.000000
16, 0.400000, 0.333333, 0.000000
17, 1.200000, 0.333333, 0.000000
18, 2.000000, 0.333333, 0.000000
19, -2.000000, 1.000000, 0.000000
20, -1.200000, 1.000000, 0.000000
** ... 28 like lines cut
*Element, type=C3D8R
1, 1, 2, 8, 7, 25, 26, 32, 31
2, 2, 3, 9, 8, 26, 27, 33, 32
3, 3, 4, 10, 9, 27, 28, 34, 33
4, 4, 5, 11, 10, 28, 29, 35, 34
5, 5, 6, 12, 11, 29, 30, 36, 35
6, 7, 8, 14, 13, 31, 32, 38, 37
7, 8, 9, 15, 14, 32, 33, 39, 38
8, 9, 10, 16, 15, 33, 34, 40, 39
9, 10, 11, 17, 16, 34, 35, 41, 40
10, 11, 12, 18, 17, 35, 36, 42, 41
11, 13, 14, 20, 19, 37, 38, 44, 43
12, 14, 15, 21, 20, 38, 39, 45, 44
13, 15, 16, 22, 21, 39, 40, 46, 45
14, 16, 17, 23, 22, 40, 41, 47, 46
15, 17, 18, 24, 23, 41, 42, 48, 47
*Nset, nset=FIXED
1, 7, 13, 19, 25, 31, 37, 43
*Nset, nset=PULLED
6, 12, 18, 24, 30, 36, 42, 48
*Elset, elset=PLATE_ELEMENTS, generate
1, 15, 1
*Solid Section, elset=PLATE_ELEMENTS, material=STEEL
*Material, name=STEEL
*Elastic
210000., 0.30
*Step, name=STATIC_PULL, nlgeom=NO
*Static
0.1, 1.0, 1e-05, 0.1
*Boundary
FIXED, 1, 3, 0.0
PULLED, 1, 1, 0.02
*Output, field
*Element Output
S
*Node Output
U
*End Step
