*Heading
** Simplified moving heat source plate model for frontend temperature-field linkage.
** This uses placeholder thermal parameters and is not a validated grinding temperature model.
*Preprint, echo=NO, model=NO, history=NO, contact=NO
*Node
1, -50.000000, -50.000000, 0.000000
2, -47.500000, -50.000000, 0.000000
3, -45.000000, -50.000000, 0.000000
4, -42.500000, -50.000000, 0.000000
5, -40.000000, -50.000000, 0.000000
6, -37.500000, -50.000000, 0.000000
7, -35.000000, -50.000000, 0.000000
8, -32.500000, -50.000000, 0.000000
9, -30.000000, -50.000000, 0.000000
10, -27.500000, -50.000000, 0.000000
11, -25.000000, -50.000000, 0.000000
12, -22.500000, -50.000000, 0.000000
13, -20.000000, -50.000000, 0.000000
14, -17.500000, -50.000000, 0.000000
15, -15.000000, -50.000000, 0.000000
16, -12.500000, -50.000000, 0.000000
17, -10.000000, -50.000000, 0.000000
18, -7.500000, -50.000000, 0.000000
19, -5.000000, -50.000000, 0.000000
20, -2.500000, -50.000000, 0.000000
** ... 5023 like lines cut
*Element, type=DC3D8
1, 1, 2, 43, 42, 1682, 1683, 1724, 1723
2, 2, 3, 44, 43, 1683, 1684, 1725, 1724
3, 3, 4, 45, 44, 1684, 1685, 1726, 1725
4, 4, 5, 46, 45, 1685, 1686, 1727, 1726
5, 5, 6, 47, 46, 1686, 1687, 1728, 1727
6, 6, 7, 48, 47, 1687, 1688, 1729, 1728
7, 7, 8, 49, 48, 1688, 1689, 1730, 1729
8, 8, 9, 50, 49, 1689, 1690, 1731, 1730
9, 9, 10, 51, 50, 1690, 1691, 1732, 1731
10, 10, 11, 52, 51, 1691, 1692, 1733, 1732
11, 11, 12, 53, 52, 1692, 1693, 1734, 1733
12, 12, 13, 54, 53, 1693, 1694, 1735, 1734
13, 13, 14, 55, 54, 1694, 1695, 1736, 1735
14, 14, 15, 56, 55, 1695, 1696, 1737, 1736
15, 15, 16, 57, 56, 1696, 1697, 1738, 1737
16, 16, 17, 58, 57, 1697, 1698, 1739, 1738
17, 17, 18, 59, 58, 1698, 1699, 1740, 1739
18, 18, 19, 60, 59, 1699, 1700, 1741, 1740
19, 19, 20, 61, 60, 1700, 1701, 1742, 1741
20, 20, 21, 62, 61, 1701, 1702, 1743, 1742
** ... 3180 like lines cut
*Nset, nset=ALL_NODES
1, 2, 3, 4, 5, 6, 7, 8, 9, 10, 11, 12, 13, 14, 15, 16
17, 18, 19, 20, 21, 22, 23, 24, 25, 26, 27, 28, 29, 30, 31, 32
33, 34, 35, 36, 37, 38, 39, 40, 41, 42, 43, 44, 45, 46, 47, 48
49, 50, 51, 52, 53, 54, 55, 56, 57, 58, 59, 60, 61, 62, 63, 64
65, 66, 67, 68, 69, 70, 71, 72, 73, 74, 75, 76, 77, 78, 79, 80
81, 82, 83, 84, 85, 86, 87, 88, 89, 90, 91, 92, 93, 94, 95, 96
97, 98, 99, 100, 101, 102, 103, 104, 105, 106, 107, 108, 109, 110, 111, 112
113, 114, 115, 116, 117, 118, 119, 120, 121, 122, 123, 124, 125, 126, 127, 128
129, 130, 131, 132, 133, 134, 135, 136, 137, 138, 139, 140, 141, 142, 143, 144
145, 146, 147, 148, 149, 150, 151, 152, 153, 154, 155, 156, 157, 158, 159, 160
161, 162, 163, 164, 165, 166, 167, 168, 169, 170, 171, 172, 173, 174, 175, 176
177, 178, 179, 180, 181, 182, 183, 184, 185, 186, 187, 188, 189, 190, 191, 192
193, 194, 195, 196, 197, 198, 199, 200, 201, 202, 203, 204, 205, 206, 207, 208
209, 210, 211, 212, 213, 214, 215, 216, 217, 218, 219, 220, 221, 222, 223, 224
225, 226, 227, 228, 229, 230, 231, 232, 233, 234, 235, 236, 237, 238, 239, 240
241, 242, 243, 244, 245, 246, 247, 248, 249, 250, 251, 252, 253, 254, 255, 256
257, 258, 259, 260, 261, 262, 263, 264, 265, 266, 267, 268, 269, 270, 271, 272
273, 274, 275, 276, 277, 278, 279, 280, 281, 282, 283, 284, 285, 286, 287, 288
289, 290, 291, 292, 293, 294, 295, 296, 297, 298, 299, 300, 301, 302, 303, 304
305, 306, 307, 308, 309, 310, 311, 312, 313, 314, 315, 316, 317, 318, 319, 320
** ... 296 like lines cut
*Nset, nset=BOTTOM_NODES
1, 2, 3, 4, 5, 6, 7, 8, 9, 10, 11, 12, 13, 14, 15, 16
17, 18, 19, 20, 21, 22, 23, 24, 25, 26, 27, 28, 29, 30, 31, 32
33, 34, 35, 36, 37, 38, 39, 40, 41, 42, 43, 44, 45, 46, 47, 48
49, 50, 51, 52, 53, 54, 55, 56, 57, 58, 59, 60, 61, 62, 63, 64
65, 66, 67, 68, 69, 70, 71, 72, 73, 74, 75, 76, 77, 78, 79, 80
81, 82, 83, 84, 85, 86, 87, 88, 89, 90, 91, 92, 93, 94, 95, 96
97, 98, 99, 100, 101, 102, 103, 104, 105, 106, 107, 108, 109, 110, 111, 112
113, 114, 115, 116, 117, 118, 119, 120, 121, 122, 123, 124, 125, 126, 127, 128
129, 130, 131, 132, 133, 134, 135, 136, 137, 138, 139, 140, 141, 142, 143, 144
145, 146, 147, 148, 149, 150, 151, 152, 153, 154, 155, 156, 157, 158, 159, 160
161, 162, 163, 164, 165, 166, 167, 168, 169, 170, 171, 172, 173, 174, 175, 176
177, 178, 179, 180, 181, 182, 183, 184, 185, 186, 187, 188, 189, 190, 191, 192
193, 194, 195, 196, 197, 198, 199, 200, 201, 202, 203, 204, 205, 206, 207, 208
209, 210, 211, 212, 213, 214, 215, 216, 217, 218, 219, 220, 221, 222, 223, 224
225, 226, 227, 228, 229, 230, 231, 232, 233, 234, 235, 236, 237, 238, 239, 240
241, 242, 243, 244, 245, 246, 247, 248, 249, 250, 251, 252, 253, 254, 255, 256
257, 258, 259, 260, 261, 262, 263, 264, 265, 266, 267, 268, 269, 270, 271, 272
273, 274, 275, 276, 277, 278, 279, 280, 281, 282, 283, 284, 285, 286, 287, 288
289, 290, 291, 292, 293, 294, 295, 296, 297, 298, 299, 300, 301, 302, 303, 304
305, 306, 307, 308, 309, 310, 311, 312, 313, 314, 315, 316, 317, 318, 319, 320
** ... 86 like lines cut
*Elset, elset=PLATE_ELEMENTS, generate
1, 3200, 1
*Nset, nset=HOT_01
4021, 4022, 4023, 4024, 4025, 4061, 4062, 4063, 4064, 4065, 4066, 4067, 4101, 4102, 4103, 4104
4105, 4106, 4107, 4108, 4109, 4142, 4143, 4144, 4145, 4146, 4147, 4148, 4149, 4150, 4183, 4184
4185, 4186, 4187, 4188, 4189, 4190, 4191, 4224, 4225, 4226, 4227, 4228, 4229, 4230, 4231, 4232
4265, 4266, 4267, 4268, 4269, 4270, 4271, 4272, 4273, 4307, 4308, 4309, 4310, 4311, 4312, 4313
4349, 4350, 4351, 4352, 4353
*Nset, nset=HOT_02
4023, 4024, 4025, 4026, 4027, 4063, 4064, 4065, 4066, 4067, 4068, 4069, 4103, 4104, 4105, 4106
4107, 4108, 4109, 4110, 4111, 4144, 4145, 4146, 4147, 4148, 4149, 4150, 4151, 4152, 4185, 4186
4187, 4188, 4189, 4190, 4191, 4192, 4193, 4226, 4227, 4228, 4229, 4230, 4231, 4232, 4233, 4234
4267, 4268, 4269, 4270, 4271, 4272, 4273, 4274, 4275, 4309, 4310, 4311, 4312, 4313, 4314, 4315
4351, 4352, 4353, 4354, 4355
*Nset, nset=HOT_03
4025, 4026, 4027, 4028, 4029, 4065, 4066, 4067, 4068, 4069, 4070, 4071, 4105, 4106, 4107, 4108
4109, 4110, 4111, 4112, 4113, 4146, 4147, 4148, 4149, 4150, 4151, 4152, 4153, 4154, 4187, 4188
4189, 4190, 4191, 4192, 4193, 4194, 4195, 4228, 4229, 4230, 4231, 4232, 4233, 4234, 4235, 4236
4269, 4270, 4271, 4272, 4273, 4274, 4275, 4276, 4277, 4311, 4312, 4313, 4314, 4315, 4316, 4317
4353, 4354, 4355, 4356, 4357
*Nset, nset=HOT_04
4027, 4028, 4029, 4030, 4031, 4067, 4068, 4069, 4070, 4071, 4072, 4073, 4107, 4108, 4109, 4110
4111, 4112, 4113, 4114, 4115, 4148, 4149, 4150, 4151, 4152, 4153, 4154, 4155, 4156, 4189, 4190
4191, 4192, 4193, 4194, 4195, 4196, 4197, 4230, 4231, 4232, 4233, 4234, 4235, 4236, 4237, 4238
4271, 4272, 4273, 4274, 4275, 4276, 4277, 4278, 4279, 4313, 4314, 4315, 4316, 4317, 4318, 4319
4355, 4356, 4357, 4358, 4359
*Nset, nset=HOT_05
4029, 4030, 4031, 4032, 4033, 4069, 4070, 4071, 4072, 4073, 4074, 4075, 4109, 4110, 4111, 4112
4113, 4114, 4115, 4116, 4117, 4150, 4151, 4152, 4153, 4154, 4155, 4156, 4157, 4158, 4191, 4192
4193, 4194, 4195, 4196, 4197, 4198, 4199, 4232, 4233, 4234, 4235, 4236, 4237, 4238, 4239, 4240
4273, 4274, 4275, 4276, 4277, 4278, 4279, 4280, 4281, 4315, 4316, 4317, 4318, 4319, 4320, 4321
4357, 4358, 4359, 4360, 4361
*Nset, nset=HOT_06
4031, 4032, 4033, 4034, 4035, 4071, 4072, 4073, 4074, 4075, 4076, 4077, 4111, 4112, 4113, 4114
4115, 4116, 4117, 4118, 4119, 4152, 4153, 4154, 4155, 4156, 4157, 4158, 4159, 4160, 4193, 4194
4195, 4196, 4197, 4198, 4199, 4200, 4201, 4234, 4235, 4236, 4237, 4238, 4239, 4240, 4241, 4242
4275, 4276, 4277, 4278, 4279, 4280, 4281, 4282, 4283, 4317, 4318, 4319, 4320, 4321, 4322, 4323
4359, 4360, 4361, 4362, 4363
*Nset, nset=HOT_07
4033, 4034, 4035, 4036, 4037, 4073, 4074, 4075, 4076, 4077, 4078, 4079, 4113, 4114, 4115, 4116
4117, 4118, 4119, 4120, 4121, 4154, 4155, 4156, 4157, 4158, 4159, 4160, 4161, 4162, 4195, 4196
4197, 4198, 4199, 4200, 4201, 4202, 4203, 4236, 4237, 4238, 4239, 4240, 4241, 4242, 4243, 4244
4277, 4278, 4279, 4280, 4281, 4282, 4283, 4284, 4285, 4319, 4320, 4321, 4322, 4323, 4324, 4325
4361, 4362, 4363, 4364, 4365
*Nset, nset=HOT_08
4035, 4036, 4037, 4038, 4039, 4075, 4076, 4077, 4078, 4079, 4080, 4081, 4115, 4116, 4117, 4118
4119, 4120, 4121, 4122, 4123, 4156, 4157, 4158, 4159, 4160, 4161, 4162, 4163, 4164, 4197, 4198
4199, 4200, 4201, 4202, 4203, 4204, 4205, 4238, 4239, 4240, 4241, 4242, 4243, 4244, 4245, 4246
4279, 4280, 4281, 4282, 4283, 4284, 4285, 4286, 4287, 4321, 4322, 4323, 4324, 4325, 4326, 4327
4363, 4364, 4365, 4366, 4367
*Nset, nset=HOT_09
4037, 4038, 4039, 4040, 4041, 4077, 4078, 4079, 4080, 4081, 4082, 4083, 4117, 4118, 4119, 4120
4121, 4122, 4123, 4124, 4125, 4158, 4159, 4160, 4161, 4162, 4163, 4164, 4165, 4166, 4199, 4200
4201, 4202, 4203, 4204, 4205, 4206, 4207, 4240, 4241, 4242, 4243, 4244, 4245, 4246, 4247, 4248
4281, 4282, 4283, 4284, 4285, 4286, 4287, 4288, 4289, 4323, 4324, 4325, 4326, 4327, 4328, 4329
4365, 4366, 4367, 4368, 4369
*Nset, nset=HOT_10
4039, 4040, 4041, 4042, 4043, 4079, 4080, 4081, 4082, 4083, 4084, 4085, 4119, 4120, 4121, 4122
4123, 4124, 4125, 4126, 4127, 4160, 4161, 4162, 4163, 4164, 4165, 4166, 4167, 4168, 4201, 4202
4203, 4204, 4205, 4206, 4207, 4208, 4209, 4242, 4243, 4244, 4245, 4246, 4247, 4248, 4249, 4250
4283, 4284, 4285, 4286, 4287, 4288, 4289, 4290, 4291, 4325, 4326, 4327, 4328, 4329, 4330, 4331
4367, 4368, 4369, 4370, 4371
*Nset, nset=HOT_11
4041, 4042, 4043, 4044, 4045, 4081, 4082, 4083, 4084, 4085, 4086, 4087, 4121, 4122, 4123, 4124
4125, 4126, 4127, 4128, 4129, 4162, 4163, 4164, 4165, 4166, 4167, 4168, 4169, 4170, 4203, 4204
4205, 4206, 4207, 4208, 4209, 4210, 4211, 4244, 4245, 4246, 4247, 4248, 4249, 4250, 4251, 4252
4285, 4286, 4287, 4288, 4289, 4290, 4291, 4292, 4293, 4327, 4328, 4329, 4330, 4331, 4332, 4333
4369, 4370, 4371, 4372, 4373
*Nset, nset=HOT_12
4043, 4044, 4045, 4046, 4047, 4083, 4084, 4085, 4086, 4087, 4088, 4089, 4123, 4124, 4125, 4126
4127, 4128, 4129, 4130, 4131, 4164, 4165, 4166, 4167, 4168, 4169, 4170, 4171, 4172, 4205, 4206
4207, 4208, 4209, 4210, 4211, 4212, 4213, 4246, 4247, 4248, 4249, 4250, 4251, 4252, 4253, 4254
4287, 4288, 4289, 4290, 4291, 4292, 4293, 4294, 4295, 4329, 4330, 4331, 4332, 4333, 4334, 4335
4371, 4372, 4373, 4374, 4375
*Nset, nset=HOT_13
4045, 4046, 4047, 4048, 4049, 4085, 4086, 4087, 4088, 4089, 4090, 4091, 4125, 4126, 4127, 4128
4129, 4130, 4131, 4132, 4133, 4166, 4167, 4168, 4169, 4170, 4171, 4172, 4173, 4174, 4207, 4208
4209, 4210, 4211, 4212, 4213, 4214, 4215, 4248, 4249, 4250, 4251, 4252, 4253, 4254, 4255, 4256
4289, 4290, 4291, 4292, 4293, 4294, 4295, 4296, 4297, 4331, 4332, 4333, 4334, 4335, 4336, 4337
4373, 4374, 4375, 4376, 4377
*Nset, nset=HOT_14
4047, 4048, 4049, 4050, 4051, 4087, 4088, 4089, 4090, 4091, 4092, 4093, 4127, 4128, 4129, 4130
4131, 4132, 4133, 4134, 4135, 4168, 4169, 4170, 4171, 4172, 4173, 4174, 4175, 4176, 4209, 4210
4211, 4212, 4213, 4214, 4215, 4216, 4217, 4250, 4251, 4252, 4253, 4254, 4255, 4256, 4257, 4258
4291, 4292, 4293, 4294, 4295, 4296, 4297, 4298, 4299, 4333, 4334, 4335, 4336, 4337, 4338, 4339
4375, 4376, 4377, 4378, 4379
*Nset, nset=HOT_15
4049, 4050, 4051, 4052, 4053, 4089, 4090, 4091, 4092, 4093, 4094, 4095, 4129, 4130, 4131, 4132
4133, 4134, 4135, 4136, 4137, 4170, 4171, 4172, 4173, 4174, 4175, 4176, 4177, 4178, 4211, 4212
4213, 4214, 4215, 4216, 4217, 4218, 4219, 4252, 4253, 4254, 4255, 4256, 4257, 4258, 4259, 4260
4293, 4294, 4295, 4296, 4297, 4298, 4299, 4300, 4301, 4335, 4336, 4337, 4338, 4339, 4340, 4341
4377, 4378, 4379, 4380, 4381
*Nset, nset=HOT_16
4051, 4052, 4053, 4054, 4055, 4091, 4092, 4093, 4094, 4095, 4096, 4097, 4131, 4132, 4133, 4134
4135, 4136, 4137, 4138, 4139, 4172, 4173, 4174, 4175, 4176, 4177, 4178, 4179, 4180, 4213, 4214
4215, 4216, 4217, 4218, 4219, 4220, 4221, 4254, 4255, 4256, 4257, 4258, 4259, 4260, 4261, 4262
4295, 4296, 4297, 4298, 4299, 4300, 4301, 4302, 4303, 4337, 4338, 4339, 4340, 4341, 4342, 4343
4379, 4380, 4381, 4382, 4383
*Nset, nset=HOT_17
4053, 4054, 4055, 4056, 4057, 4093, 4094, 4095, 4096, 4097, 4098, 4099, 4133, 4134, 4135, 4136
4137, 4138, 4139, 4140, 4141, 4174, 4175, 4176, 4177, 4178, 4179, 4180, 4181, 4182, 4215, 4216
4217, 4218, 4219, 4220, 4221, 4222, 4223, 4256, 4257, 4258, 4259, 4260, 4261, 4262, 4263, 4264
4297, 4298, 4299, 4300, 4301, 4302, 4303, 4304, 4305, 4339, 4340, 4341, 4342, 4343, 4344, 4345
4381, 4382, 4383, 4384, 4385
*Solid Section, elset=PLATE_ELEMENTS, material=PLACEHOLDER_STEEL
*Material, name=PLACEHOLDER_STEEL
** Placeholder values in mm-s-degC style units.
*Conductivity
0.045
*Density
7.85e-06
*Specific Heat
460.
*Initial Conditions, type=TEMPERATURE
ALL_NODES, 26.000000
*Step, name=HEAT_01, nlgeom=NO
*Heat Transfer
0.250000, 0.250000, 1e-05, 0.250000
*Boundary, OP=NEW
BOTTOM_NODES, 11, 11, 26.000000
HOT_01, 11, 11, 92.000000
*Output, field, frequency=1
*Node Output
NT
*End Step
*Step, name=HEAT_02, nlgeom=NO
*Heat Transfer
0.250000, 0.250000, 1e-05, 0.250000
*Boundary, OP=NEW
BOTTOM_NODES, 11, 11, 26.000000
HOT_02, 11, 11, 92.000000
*Output, field, frequency=1
*Node Output
NT
*End Step
*Step, name=HEAT_03, nlgeom=NO
*Heat Transfer
0.250000, 0.250000, 1e-05, 0.250000
*Boundary, OP=NEW
BOTTOM_NODES, 11, 11, 26.000000
HOT_03, 11, 11, 92.000000
*Output, field, frequency=1
*Node Output
NT
*End Step
*Step, name=HEAT_04, nlgeom=NO
*Heat Transfer
0.250000, 0.250000, 1e-05, 0.250000
*Boundary, OP=NEW
BOTTOM_NODES, 11, 11, 26.000000
HOT_04, 11, 11, 92.000000
*Output, field, frequency=1
*Node Output
NT
*End Step
*Step, name=HEAT_05, nlgeom=NO
*Heat Transfer
0.250000, 0.250000, 1e-05, 0.250000
*Boundary, OP=NEW
BOTTOM_NODES, 11, 11, 26.000000
HOT_05, 11, 11, 92.000000
*Output, field, frequency=1
*Node Output
NT
*End Step
*Step, name=HEAT_06, nlgeom=NO
*Heat Transfer
0.250000, 0.250000, 1e-05, 0.250000
*Boundary, OP=NEW
BOTTOM_NODES, 11, 11, 26.000000
HOT_06, 11, 11, 92.000000
*Output, field, frequency=1
*Node Output
NT
*End Step
*Step, name=HEAT_07, nlgeom=NO
*Heat Transfer
0.250000, 0.250000, 1e-05, 0.250000
*Boundary, OP=NEW
BOTTOM_NODES, 11, 11, 26.000000
HOT_07, 11, 11, 92.000000
*Output, field, frequency=1
*Node Output
NT
*End Step
*Step, name=HEAT_08, nlgeom=NO
*Heat Transfer
0.250000, 0.250000, 1e-05, 0.250000
*Boundary, OP=NEW
BOTTOM_NODES, 11, 11, 26.000000
HOT_08, 11, 11, 92.000000
*Output, field, frequency=1
*Node Output
NT
*End Step
*Step, name=HEAT_09, nlgeom=NO
*Heat Transfer
0.250000, 0.250000, 1e-05, 0.250000
*Boundary, OP=NEW
BOTTOM_NODES, 11, 11, 26.000000
HOT_09, 11, 11, 92.000000
*Output, field, frequency=1
*Node Output
NT
*End Step
*Step, name=HEAT_10, nlgeom=NO
*Heat Transfer
0.250000, 0.250000, 1e-05, 0.250000
*Boundary, OP=NEW
BOTTOM_NODES, 11, 11, 26.000000
HOT_10, 11, 11, 92.000000
*Output, field, frequency=1
*Node Output
NT
*End Step
*Step, name=HEAT_11, nlgeom=NO
*Heat Transfer
0.250000, 0.250000, 1e-05, 0.250000
*Boundary, OP=NEW
BOTTOM_NODES, 11, 11, 26.000000
HOT_11, 11, 11, 92.000000
*Output, field, frequency=1
*Node Output
NT
*End Step
*Step, name=HEAT_12, nlgeom=NO
*Heat Transfer
0.250000, 0.250000, 1e-05, 0.250000
*Boundary, OP=NEW
BOTTOM_NODES, 11, 11, 26.000000
HOT_12, 11, 11, 92.000000
*Output, field, frequency=1
*Node Output
NT
*End Step
*Step, name=HEAT_13, nlgeom=NO
*Heat Transfer
0.250000, 0.250000, 1e-05, 0.250000
*Boundary, OP=NEW
BOTTOM_NODES, 11, 11, 26.000000
HOT_13, 11, 11, 92.000000
*Output, field, frequency=1
*Node Output
NT
*End Step
*Step, name=HEAT_14, nlgeom=NO
*Heat Transfer
0.250000, 0.250000, 1e-05, 0.250000
*Boundary, OP=NEW
BOTTOM_NODES, 11, 11, 26.000000
HOT_14, 11, 11, 92.000000
*Output, field, frequency=1
*Node Output
NT
*End Step
*Step, name=HEAT_15, nlgeom=NO
*Heat Transfer
0.250000, 0.250000, 1e-05, 0.250000
*Boundary, OP=NEW
BOTTOM_NODES, 11, 11, 26.000000
HOT_15, 11, 11, 92.000000
*Output, field, frequency=1
*Node Output
NT
*End Step
*Step, name=HEAT_16, nlgeom=NO
*Heat Transfer
0.250000, 0.250000, 1e-05, 0.250000
*Boundary, OP=NEW
BOTTOM_NODES, 11, 11, 26.000000
HOT_16, 11, 11, 92.000000
*Output, field, frequency=1
*Node Output
NT
*End Step
*Step, name=HEAT_17, nlgeom=NO
*Heat Transfer
0.250000, 0.250000, 1e-05, 0.250000
*Boundary, OP=NEW
BOTTOM_NODES, 11, 11, 26.000000
HOT_17, 11, 11, 92.000000
*Output, field, frequency=1
*Node Output
NT
*End Step
